dss/import/elor/Load_Caso_Base.dss
New "Load.90100" bus1=Nod_90100.1.2.3 phases=3 conn=LL model=1 kV=0.23 Kw=152.0 kvar=49.959 Vminpu=0.9 Vmaxpu=1.1 
New "Load.90103" bus1=Nod_90103.1.2.3 phases=3 conn=LL model=1 kV=0.23 Kw=47.5 kvar=15.612 Vminpu=0.9 Vmaxpu=1.1 
New "Load.90104" bus1=Nod_90104.1.2.3 phases=3 conn=LL model=1 kV=0.23 Kw=71.25 kvar=23.418 Vminpu=0.9 Vmaxpu=1.1 
New "Load.90105" bus1=Nod_90105.1.2.3 phases=3 conn=LL model=1 kV=0.23 Kw=38.0 kvar=12.49 Vminpu=0.9 Vmaxpu=1.1 
New "Load.90106" bus1=Nod_90106.1.2.3 phases=3 conn=LL model=1 kV=0.23 Kw=47.5 kvar=15.612 Vminpu=0.9 Vmaxpu=1.1 
New "Load.90107" bus1=Nod_90107.1.2.3 phases=3 conn=LL model=1 kV=0.23 Kw=47.5 kvar=15.612 Vminpu=0.9 Vmaxpu=1.1 
New "Load.90108" bus1=Nod_90108.1.2.3 phases=3 conn=LL model=1 kV=0.23 Kw=47.5 kvar=15.612 Vminpu=0.9 Vmaxpu=1.1 
New "Load.90109" bus1=Nod_90109.1.2.3 phases=3 conn=LL model=1 kV=0.23 Kw=47.5 kvar=15.612 Vminpu=0.9 Vmaxpu=1.1 
New "Load.90110" bus1=Nod_90110.1.2.3 phases=3 conn=LL model=1 kV=0.23 Kw=152.0 kvar=49.959 Vminpu=0.9 Vmaxpu=1.1 
New "Load.90111" bus1=Nod_90111.1.2.3 phases=3 conn=LL model=1 kV=0.23 Kw=38.0 kvar=12.49 Vminpu=0.9 Vmaxpu=1.1 
New "Load.90112" bus1=Nod_90112.1.2.3 phases=3 conn=LL model=1 kV=0.23 Kw=95.0 kvar=31.225 Vminpu=0.9 Vmaxpu=1.1 
New "Load.90113" bus1=Nod_90113.1.2.3 phases=3 conn=LL model=1 kV=0.23 Kw=71.25 kvar=23.418 Vminpu=0.9 Vmaxpu=1.1 
New "Load.90114" bus1=Nod_90114.1.2.3 phases=3 conn=LL model=1 kV=0.23 Kw=38.0 kvar=12.49 Vminpu=0.9 Vmaxpu=1.1 
New "Load.90115" bus1=Nod_90115.1.2.3 phases=3 conn=LL model=1 kV=0.23 Kw=71.25 kvar=23.418 Vminpu=0.9 Vmaxpu=1.1 
New "Load.90116" bus1=Nod_90116.1.2.3 phases=3 conn=LL model=1 kV=0.23 Kw=71.25 kvar=23.418 Vminpu=0.9 Vmaxpu=1.1 
New "Load.90117" bus1=Nod_90117.1.2.3 phases=3 conn=LL model=1 kV=0.23 Kw=47.5 kvar=15.612 Vminpu=0.9 Vmaxpu=1.1 
New "Load.90118" bus1=Nod_90118.1.2.3 phases=3 conn=LL model=1 kV=0.23 Kw=23.75 kvar=7.806 Vminpu=0.9 Vmaxpu=1.1 
New "Load.90119" bus1=Nod_90119.1.2.3 phases=3 conn=LL model=1 kV=0.23 Kw=23.75 kvar=7.806 Vminpu=0.9 Vmaxpu=1.1 
New "Load.90120" bus1=Nod_90120.1.0 phases=1 conn=LL model=1 kV=0.23 Kw=23.75 kvar=7.806 Vminpu=0.9 Vmaxpu=1.1 
New "Load.90121" bus1=Nod_90121.1.2.3 phases=3 conn=LL model=1 kV=0.23 Kw=47.5 kvar=15.612 Vminpu=0.9 Vmaxpu=1.1 
New "Load.90122" bus1=Nod_90122.1.2.3 phases=3 conn=LL model=1 kV=0.23 Kw=47.5 kvar=15.612 Vminpu=0.9 Vmaxpu=1.1 
New "Load.90123" bus1=Nod_90123.1.2.3 phases=3 conn=LL model=1 kV=0.23 Kw=71.25 kvar=23.418 Vminpu=0.9 Vmaxpu=1.1 
New "Load.90124" bus1=Nod_90124.1.2.3 phases=3 conn=LL model=1 kV=0.23 Kw=71.25 kvar=23.418 Vminpu=0.9 Vmaxpu=1.1 
New "Load.90125" bus1=Nod_90125.1.2.3 phases=3 conn=LL model=1 kV=0.23 Kw=23.75 kvar=7.806 Vminpu=0.9 Vmaxpu=1.1 
New "Load.90126" bus1=Nod_90126.1.2.3 phases=3 conn=LL model=1 kV=0.23 Kw=38.0 kvar=12.49 Vminpu=0.9 Vmaxpu=1.1 
New "Load.90127" bus1=Nod_90127.1.2.3 phases=3 conn=LL model=1 kV=0.23 Kw=152.0 kvar=49.959 Vminpu=0.9 Vmaxpu=1.1 
New "Load.90260" bus1=Nod_90260.1.2.3 phases=3 conn=LL model=1 kV=0.23 Kw=47.5 kvar=15.612 Vminpu=0.9 Vmaxpu=1.1 
New "Load.90261" bus1=Nod_90261.1.2.3 phases=3 conn=LL model=1 kV=0.23 Kw=47.5 kvar=15.612 Vminpu=0.9 Vmaxpu=1.1 
New "Load.90262" bus1=Nod_90262.1.2.3 phases=3 conn=LL model=1 kV=0.23 Kw=23.75 kvar=7.806 Vminpu=0.9 Vmaxpu=1.1 
New "Load.90263" bus1=Nod_90263.1.2.3 phases=3 conn=LL model=1 kV=0.23 Kw=95.0 kvar=31.225 Vminpu=0.9 Vmaxpu=1.1 
New "Load.90273" bus1=Nod_90273.1.2.3 phases=3 conn=LL model=1 kV=0.23 Kw=95.0 kvar=31.225 Vminpu=0.9 Vmaxpu=1.1 
New "Load.90274" bus1=Nod_90274.1.2.3 phases=3 conn=LL model=1 kV=0.23 Kw=118.75 kvar=39.031 Vminpu=0.9 Vmaxpu=1.1 
New "Load.90289" bus1=Nod_90289.1.2.3 phases=3 conn=LL model=1 kV=0.23 Kw=95.0 kvar=31.225 Vminpu=0.9 Vmaxpu=1.1 
New "Load.90301" bus1=Nod_90301.1.2.3 phases=3 conn=LL model=1 kV=0.23 Kw=47.5 kvar=15.612 Vminpu=0.9 Vmaxpu=1.1 
New "Load.90322" bus1=Nod_90322.1.2.3 phases=3 conn=LL model=1 kV=0.23 Kw=47.5 kvar=15.612 Vminpu=0.9 Vmaxpu=1.1 
New "Load.90323" bus1=Nod_90323.1.2.3 phases=3 conn=LL model=1 kV=0.23 Kw=9.5 kvar=3.122 Vminpu=0.9 Vmaxpu=1.1 
New "Load.90382" bus1=Nod_90382.1.2.3 phases=3 conn=LL model=1 kV=0.23 Kw=152.0 kvar=49.959 Vminpu=0.9 Vmaxpu=1.1 
New "Load.90383" bus1=Nod_90383.1.2.3 phases=3 conn=LL model=1 kV=0.23 Kw=152.0 kvar=49.959 Vminpu=0.9 Vmaxpu=1.1 
New "Load.90389" bus1=Nod_90389.1.2.3 phases=3 conn=LL model=1 kV=0.23 Kw=71.25 kvar=23.418 Vminpu=0.9 Vmaxpu=1.1 
New "Load.90390" bus1=Nod_90390.1.2.3 phases=3 conn=LL model=1 kV=0.23 Kw=23.75 kvar=7.806 Vminpu=0.9 Vmaxpu=1.1 
New "Load.90391" bus1=Nod_90391.1.2.3 phases=3 conn=LL model=1 kV=0.23 Kw=23.75 kvar=7.806 Vminpu=0.9 Vmaxpu=1.1 
New "Load.90394" bus1=Nod_90394.1.2.3 phases=3 conn=LL model=1 kV=0.23 Kw=152.0 kvar=49.959 Vminpu=0.9 Vmaxpu=1.1 
New "Load.90401" bus1=Nod_90401.1.2.3 phases=3 conn=LL model=1 kV=0.23 Kw=71.25 kvar=23.418 Vminpu=0.9 Vmaxpu=1.1 
New "Load.90402" bus1=Nod_90402.1.2.3 phases=3 conn=LL model=1 kV=0.23 Kw=95.0 kvar=31.225 Vminpu=0.9 Vmaxpu=1.1 
New "Load.90403" bus1=Nod_90403.1.2.3 phases=3 conn=LL model=1 kV=0.23 Kw=190.0 kvar=62.45 Vminpu=0.9 Vmaxpu=1.1 
New "Load.90404" bus1=Nod_90404.1.2.3 phases=3 conn=LL model=1 kV=0.23 Kw=95.0 kvar=31.225 Vminpu=0.9 Vmaxpu=1.1 
New "Load.90405" bus1=Nod_90405.1.2.3 phases=3 conn=LL model=1 kV=0.23 Kw=47.5 kvar=15.612 Vminpu=0.9 Vmaxpu=1.1 
New "Load.90406" bus1=Nod_90406.1.2.3 phases=3 conn=LL model=1 kV=0.23 Kw=152.0 kvar=49.959 Vminpu=0.9 Vmaxpu=1.1 
New "Load.90492" bus1=Nod_90492.1.2.3 phases=3 conn=LL model=1 kV=0.23 Kw=118.75 kvar=39.031 Vminpu=0.9 Vmaxpu=1.1 
New "Load.90493" bus1=Nod_90493.1.2.3 phases=3 conn=LL model=1 kV=0.23 Kw=118.75 kvar=39.031 Vminpu=0.9 Vmaxpu=1.1 
New "Load.90494" bus1=Nod_90494.1.2.3 phases=3 conn=LL model=1 kV=0.23 Kw=152.0 kvar=49.959 Vminpu=0.9 Vmaxpu=1.1 
New "Load.90495" bus1=Nod_90495.1.2.3 phases=3 conn=LL model=1 kV=0.23 Kw=71.25 kvar=23.418 Vminpu=0.9 Vmaxpu=1.1 
New "Load.90496" bus1=Nod_90496.1.2.3 phases=3 conn=LL model=1 kV=0.23 Kw=95.0 kvar=31.225 Vminpu=0.9 Vmaxpu=1.1 
New "Load.90527" bus1=Nod_90527.1.2.3 phases=3 conn=LL model=1 kV=0.23 Kw=47.5 kvar=15.612 Vminpu=0.9 Vmaxpu=1.1 
New "Load.90528" bus1=Nod_90528.1.2.3 phases=3 conn=LL model=1 kV=0.23 Kw=118.75 kvar=39.031 Vminpu=0.9 Vmaxpu=1.1 
New "Load.90529" bus1=Nod_90529.1.2.3 phases=3 conn=LL model=1 kV=0.23 Kw=95.0 kvar=31.225 Vminpu=0.9 Vmaxpu=1.1 
New "Load.90530" bus1=Nod_90530.1.2.3 phases=3 conn=LL model=1 kV=0.23 Kw=35.625 kvar=11.709 Vminpu=0.9 Vmaxpu=1.1 
New "Load.90674" bus1=Nod_90674.1.2.3 phases=3 conn=LL model=1 kV=0.23 Kw=152.0 kvar=49.959 Vminpu=0.9 Vmaxpu=1.1 
New "Load.90675" bus1=Nod_90675.1.2.3 phases=3 conn=LL model=1 kV=0.23 Kw=152.0 kvar=49.959 Vminpu=0.9 Vmaxpu=1.1 
New "Load.90676" bus1=Nod_90676.1.2.3 phases=3 conn=LL model=1 kV=0.23 Kw=23.75 kvar=7.806 Vminpu=0.9 Vmaxpu=1.1 
New "Load.90677" bus1=Nod_90677.1.2.3 phases=3 conn=LL model=1 kV=0.23 Kw=190.0 kvar=62.45 Vminpu=0.9 Vmaxpu=1.1 
New "Load.90678" bus1=Nod_90678.1.2.3 phases=3 conn=LL model=1 kV=0.23 Kw=23.75 kvar=7.806 Vminpu=0.9 Vmaxpu=1.1 
New "Load.90679" bus1=Nod_90679.1.2.3 phases=3 conn=LL model=1 kV=0.23 Kw=237.5 kvar=78.062 Vminpu=0.9 Vmaxpu=1.1 
New "Load.90680" bus1=Nod_90680.1.2.3 phases=3 conn=LL model=1 kV=0.23 Kw=380.0 kvar=124.9 Vminpu=0.9 Vmaxpu=1.1 
New "Load.90681" bus1=Nod_90681.1.2.3 phases=3 conn=LL model=1 kV=0.23 Kw=95.0 kvar=31.225 Vminpu=0.9 Vmaxpu=1.1 
New "Load.90682" bus1=Nod_90682.1.2.3 phases=3 conn=LL model=1 kV=0.23 Kw=299.25 kvar=98.358 Vminpu=0.9 Vmaxpu=1.1 
New "Load.90683" bus1=Nod_90683.1.2.3 phases=3 conn=LL model=1 kV=0.23 Kw=71.25 kvar=23.418 Vminpu=0.9 Vmaxpu=1.1 
New "Load.90684" bus1=Nod_90684.1.2.3 phases=3 conn=LL model=1 kV=0.23 Kw=608.0 kvar=199.839 Vminpu=0.9 Vmaxpu=1.1 
New "Load.90685" bus1=Nod_90685.1.2.3 phases=3 conn=LL model=1 kV=0.23 Kw=152.0 kvar=49.959 Vminpu=0.9 Vmaxpu=1.1 
New "Load.90686" bus1=Nod_90686.1.2.3 phases=3 conn=LL model=1 kV=0.23 Kw=23.75 kvar=7.806 Vminpu=0.9 Vmaxpu=1.1 
New "Load.90687" bus1=Nod_90687.1.2.3 phases=3 conn=LL model=1 kV=0.23 Kw=95.0 kvar=31.225 Vminpu=0.9 Vmaxpu=1.1 
New "Load.90688" bus1=Nod_90688.1.2.3 phases=3 conn=LL model=1 kV=0.23 Kw=95.0 kvar=31.225 Vminpu=0.9 Vmaxpu=1.1 
New "Load.90689" bus1=Nod_90689.1.2.3 phases=3 conn=LL model=1 kV=0.23 Kw=95.0 kvar=31.225 Vminpu=0.9 Vmaxpu=1.1 
New "Load.90690" bus1=Nod_90690.1.2.3 phases=3 conn=LL model=1 kV=0.23 Kw=23.75 kvar=7.806 Vminpu=0.9 Vmaxpu=1.1 
New "Load.90691" bus1=Nod_90691.1.2.3 phases=3 conn=LL model=1 kV=0.23 Kw=152.0 kvar=49.959 Vminpu=0.9 Vmaxpu=1.1 
New "Load.90692" bus1=Nod_90692.1.2.3 phases=3 conn=LL model=1 kV=0.23 Kw=76.0 kvar=24.979 Vminpu=0.9 Vmaxpu=1.1 
New "Load.90693" bus1=Nod_90693.1.2.3 phases=3 conn=LL model=1 kV=0.23 Kw=14.25 kvar=4.683 Vminpu=0.9 Vmaxpu=1.1 
New "Load.90694" bus1=Nod_90694.1.2.3 phases=3 conn=LL model=1 kV=0.23 Kw=23.75 kvar=7.806 Vminpu=0.9 Vmaxpu=1.1 
New "Load.90695" bus1=Nod_90695.1.2.3 phases=3 conn=LL model=1 kV=0.23 Kw=95.0 kvar=31.225 Vminpu=0.9 Vmaxpu=1.1 
New "Load.90696" bus1=Nod_90696.1.2.3 phases=3 conn=LL model=1 kV=0.23 Kw=142.5 kvar=46.837 Vminpu=0.9 Vmaxpu=1.1 
New "Load.90697" bus1=Nod_90697.1.2.3 phases=3 conn=LL model=1 kV=0.23 Kw=95.0 kvar=31.225 Vminpu=0.9 Vmaxpu=1.1 
New "Load.90698" bus1=Nod_90698.1.2.3 phases=3 conn=LL model=1 kV=0.23 Kw=95.0 kvar=31.225 Vminpu=0.9 Vmaxpu=1.1 
New "Load.90699" bus1=Nod_90699.1.2.3 phases=3 conn=LL model=1 kV=0.23 Kw=190.0 kvar=62.45 Vminpu=0.9 Vmaxpu=1.1 
New "Load.90700" bus1=Nod_90700.1.2.3 phases=3 conn=LL model=1 kV=0.23 Kw=95.0 kvar=31.225 Vminpu=0.9 Vmaxpu=1.1 
New "Load.90701" bus1=Nod_90701.1.2.3 phases=3 conn=LL model=1 kV=0.23 Kw=71.25 kvar=23.418 Vminpu=0.9 Vmaxpu=1.1 
New "Load.90702" bus1=Nod_90702.1.2 phases=1 conn=LL model=1 kV=0.23 Kw=23.75 kvar=7.806 Vminpu=0.9 Vmaxpu=1.1 
New "Load.90703" bus1=Nod_90703.1.2.3 phases=3 conn=LL model=1 kV=0.23 Kw=47.5 kvar=15.612 Vminpu=0.9 Vmaxpu=1.1 
New "Load.90704" bus1=Nod_90704.1.2.3 phases=3 conn=LL model=1 kV=0.23 Kw=23.75 kvar=7.806 Vminpu=0.9 Vmaxpu=1.1 
New "Load.90705" bus1=Nod_90705.1.2.3 phases=3 conn=LL model=1 kV=0.23 Kw=47.5 kvar=15.612 Vminpu=0.9 Vmaxpu=1.1 
New "Load.90758" bus1=Nod_90758.1.2.3 phases=3 conn=LL model=1 kV=0.23 Kw=152.0 kvar=49.959 Vminpu=0.9 Vmaxpu=1.1 
New "Load.90759" bus1=Nod_90759.1.2.3 phases=3 conn=LL model=1 kV=0.23 Kw=152.0 kvar=49.959 Vminpu=0.9 Vmaxpu=1.1 
New "Load.90760" bus1=Nod_90760.1.2.3 phases=3 conn=LL model=1 kV=0.23 Kw=152.0 kvar=49.959 Vminpu=0.9 Vmaxpu=1.1 
New "Load.90762" bus1=Nod_90762.1.2.3 phases=3 conn=LL model=1 kV=0.23 Kw=71.25 kvar=23.418 Vminpu=0.9 Vmaxpu=1.1 
New "Load.90771" bus1=Nod_90771.1.2.3 phases=3 conn=LL model=1 kV=0.23 Kw=95.0 kvar=31.225 Vminpu=0.9 Vmaxpu=1.1 
New "Load.90772" bus1=Nod_90772.1.2.3 phases=3 conn=LL model=1 kV=0.23 Kw=95.0 kvar=31.225 Vminpu=0.9 Vmaxpu=1.1 
New "Load.90780" bus1=Nod_90780.1.2.3 phases=3 conn=LL model=1 kV=0.23 Kw=47.5 kvar=15.612 Vminpu=0.9 Vmaxpu=1.1 
New "Load.90800" bus1=Nod_90800.1.0 phases=1 conn=LL model=1 kV=0.23 Kw=9.5 kvar=3.122 Vminpu=0.9 Vmaxpu=1.1 
New "Load.90801" bus1=Nod_90801.1.2.3 phases=3 conn=LL model=1 kV=0.23 Kw=47.5 kvar=15.612 Vminpu=0.9 Vmaxpu=1.1 
New "Load.90802" bus1=Nod_90802.1.2.3 phases=3 conn=LL model=1 kV=0.23 Kw=23.75 kvar=7.806 Vminpu=0.9 Vmaxpu=1.1 
New "Load.90803" bus1=Nod_90803.1.2.3 phases=3 conn=LL model=1 kV=0.23 Kw=38.0 kvar=12.49 Vminpu=0.9 Vmaxpu=1.1 
New "Load.90807" bus1=Nod_90807.1.2.3 phases=3 conn=LL model=1 kV=0.23 Kw=118.75 kvar=39.031 Vminpu=0.9 Vmaxpu=1.1 
New "Load.90809" bus1=Nod_90809.1.2.3 phases=3 conn=LL model=1 kV=0.23 Kw=38.0 kvar=12.49 Vminpu=0.9 Vmaxpu=1.1 
New "Load.90812" bus1=Nod_90812.1.2.3 phases=3 conn=LL model=1 kV=0.23 Kw=71.25 kvar=23.418 Vminpu=0.9 Vmaxpu=1.1 
New "Load.90817" bus1=Nod_90817.1.2.3 phases=3 conn=LL model=1 kV=0.23 Kw=47.5 kvar=15.612 Vminpu=0.9 Vmaxpu=1.1 
New "Load.90818" bus1=Nod_90818.1.2.3 phases=3 conn=LL model=1 kV=0.23 Kw=95.0 kvar=31.225 Vminpu=0.9 Vmaxpu=1.1 
New "Load.90824" bus1=Nod_90824.1.2.3 phases=3 conn=LL model=1 kV=0.23 Kw=152.0 kvar=49.959 Vminpu=0.9 Vmaxpu=1.1 
New "Load.90829" bus1=Nod_90829.1.2.3 phases=3 conn=LL model=1 kV=0.23 Kw=95.0 kvar=31.225 Vminpu=0.9 Vmaxpu=1.1 
New "Load.90830" bus1=Nod_90830.1.2.3 phases=3 conn=LL model=1 kV=0.23 Kw=95.0 kvar=31.225 Vminpu=0.9 Vmaxpu=1.1 
New "Load.90834" bus1=Nod_90834.1.2.3 phases=3 conn=LL model=1 kV=0.23 Kw=71.25 kvar=23.418 Vminpu=0.9 Vmaxpu=1.1 
New "Load.90835" bus1=Nod_90835.1.2.3 phases=3 conn=LL model=1 kV=0.23 Kw=47.5 kvar=15.612 Vminpu=0.9 Vmaxpu=1.1 
New "Load.90844" bus1=Nod_90844.1.2.3 phases=3 conn=LL model=1 kV=0.23 Kw=47.5 kvar=15.612 Vminpu=0.9 Vmaxpu=1.1 
New "Load.90849" bus1=Nod_90849.1.2.3 phases=3 conn=LL model=1 kV=0.23 Kw=190.0 kvar=62.45 Vminpu=0.9 Vmaxpu=1.1 
New "Load.90859" bus1=Nod_90859.1.2.3 phases=3 conn=LL model=1 kV=0.23 Kw=95.0 kvar=31.225 Vminpu=0.9 Vmaxpu=1.1 
New "Load.90863" bus1=Nod_90863.1.2.3 phases=3 conn=LL model=1 kV=0.23 Kw=23.75 kvar=7.806 Vminpu=0.9 Vmaxpu=1.1 
New "Load.90867" bus1=Nod_90867.1.2.3 phases=3 conn=LL model=1 kV=0.23 Kw=190.0 kvar=62.45 Vminpu=0.9 Vmaxpu=1.1 
New "Load.90868" bus1=Nod_90868.1.2.3 phases=3 conn=LL model=1 kV=0.23 Kw=237.5 kvar=78.062 Vminpu=0.9 Vmaxpu=1.1 
New "Load.90962" bus1=Nod_90962.1.2.3 phases=3 conn=LL model=1 kV=0.23 Kw=95.0 kvar=31.225 Vminpu=0.9 Vmaxpu=1.1 
New "Load.90963" bus1=Nod_90963.1.2.3 phases=3 conn=LL model=1 kV=0.23 Kw=71.25 kvar=23.418 Vminpu=0.9 Vmaxpu=1.1 
New "Load.90964" bus1=Nod_90964.1.2.3 phases=3 conn=LL model=1 kV=0.23 Kw=95.0 kvar=31.225 Vminpu=0.9 Vmaxpu=1.1 
New "Load.90965" bus1=Nod_90965.1.2.3 phases=3 conn=LL model=1 kV=0.23 Kw=95.0 kvar=31.225 Vminpu=0.9 Vmaxpu=1.1 
New "Load.90970" bus1=Nod_90970.1.2.3 phases=3 conn=LL model=1 kV=0.23 Kw=71.25 kvar=23.418 Vminpu=0.9 Vmaxpu=1.1 
New "Load.90989" bus1=Nod_90989.1.2.3 phases=3 conn=LL model=1 kV=0.23 Kw=71.25 kvar=23.418 Vminpu=0.9 Vmaxpu=1.1 
New "Load.90990" bus1=Nod_90990.1.2.3 phases=3 conn=LL model=1 kV=0.23 Kw=190.0 kvar=62.45 Vminpu=0.9 Vmaxpu=1.1 
New "Load.90995" bus1=Nod_90995.1.2.3 phases=3 conn=LL model=1 kV=0.23 Kw=237.5 kvar=78.062 Vminpu=0.9 Vmaxpu=1.1 
New "Load.91005" bus1=Nod_91005.1.2.3 phases=3 conn=LL model=1 kV=0.23 Kw=95.0 kvar=31.225 Vminpu=0.9 Vmaxpu=1.1 
New "Load.91006" bus1=Nod_91006.1.2.3 phases=3 conn=LL model=1 kV=0.23 Kw=71.25 kvar=23.418 Vminpu=0.9 Vmaxpu=1.1 
New "Load.91009" bus1=Nod_91009.1.2.3 phases=3 conn=LL model=1 kV=0.23 Kw=71.25 kvar=23.418 Vminpu=0.9 Vmaxpu=1.1 
New "Load.91011" bus1=Nod_91011.1.2.3 phases=3 conn=LL model=1 kV=0.23 Kw=71.25 kvar=23.418 Vminpu=0.9 Vmaxpu=1.1 
New "Load.91017" bus1=Nod_91017.1.2.3 phases=3 conn=LL model=1 kV=0.23 Kw=95.0 kvar=31.225 Vminpu=0.9 Vmaxpu=1.1 
New "Load.91028" bus1=Nod_91028.1.0 phases=1 conn=LL model=1 kV=0.23 Kw=9.5 kvar=3.122 Vminpu=0.9 Vmaxpu=1.1 
New "Load.91030" bus1=Nod_91030.1.2.3 phases=3 conn=LL model=1 kV=0.23 Kw=95.0 kvar=31.225 Vminpu=0.9 Vmaxpu=1.1 
New "Load.91037" bus1=Nod_91037.1.2.3 phases=3 conn=LL model=1 kV=0.23 Kw=95.0 kvar=31.225 Vminpu=0.9 Vmaxpu=1.1 
New "Load.91040" bus1=Nod_91040.1.2.3 phases=3 conn=LL model=1 kV=0.23 Kw=299.25 kvar=98.358 Vminpu=0.9 Vmaxpu=1.1 
New "Load.91041" bus1=Nod_91041.1.2.3 phases=3 conn=LL model=1 kV=0.23 Kw=152.0 kvar=49.959 Vminpu=0.9 Vmaxpu=1.1 
New "Load.91046" bus1=Nod_91046.1.2.3 phases=3 conn=LL model=1 kV=0.23 Kw=47.5 kvar=15.612 Vminpu=0.9 Vmaxpu=1.1 
New "Load.91052" bus1=Nod_91052.1.2.3 phases=3 conn=LL model=1 kV=0.23 Kw=71.25 kvar=23.418 Vminpu=0.9 Vmaxpu=1.1 
New "Load.91055" bus1=Nod_91055.1.2.3 phases=3 conn=LL model=1 kV=0.23 Kw=71.25 kvar=23.418 Vminpu=0.9 Vmaxpu=1.1 
New "Load.91056" bus1=Nod_91056.1.2.3 phases=3 conn=LL model=1 kV=0.23 Kw=38.0 kvar=12.49 Vminpu=0.9 Vmaxpu=1.1 
New "Load.91067" bus1=Nod_91067.1.2.3 phases=3 conn=LL model=1 kV=0.23 Kw=152.0 kvar=49.959 Vminpu=0.9 Vmaxpu=1.1 
New "Load.91074" bus1=Nod_91074.1.2.3 phases=3 conn=LL model=1 kV=0.23 Kw=152.0 kvar=49.959 Vminpu=0.9 Vmaxpu=1.1 
New "Load.91107" bus1=Nod_91107.1.0 phases=1 conn=LL model=1 kV=0.23 Kw=23.75 kvar=7.806 Vminpu=0.9 Vmaxpu=1.1 
New "Load.91117" bus1=Nod_91117.1.2.3 phases=3 conn=LL model=1 kV=0.23 Kw=23.75 kvar=7.806 Vminpu=0.9 Vmaxpu=1.1 
New "Load.91119" bus1=Nod_91119.1.2.3 phases=3 conn=LL model=1 kV=0.23 Kw=475.0 kvar=156.125 Vminpu=0.9 Vmaxpu=1.1 
New "Load.91131" bus1=Nod_91131.1.2.3 phases=3 conn=LL model=1 kV=0.23 Kw=71.25 kvar=23.418 Vminpu=0.9 Vmaxpu=1.1 
New "Load.91134" bus1=Nod_91134.1.2.3 phases=3 conn=LL model=1 kV=0.23 Kw=47.5 kvar=15.612 Vminpu=0.9 Vmaxpu=1.1 
New "Load.91136" bus1=Nod_91136.1.2.3 phases=3 conn=LL model=1 kV=0.23 Kw=71.25 kvar=23.418 Vminpu=0.9 Vmaxpu=1.1 
New "Load.91137" bus1=Nod_91137.1.2.3 phases=3 conn=LL model=1 kV=0.23 Kw=47.5 kvar=15.612 Vminpu=0.9 Vmaxpu=1.1 
New "Load.91138" bus1=Nod_91138.1.2.3 phases=3 conn=LL model=1 kV=0.23 Kw=71.25 kvar=23.418 Vminpu=0.9 Vmaxpu=1.1 
New "Load.91139" bus1=Nod_91139.1.2.3 phases=3 conn=LL model=1 kV=0.23 Kw=71.25 kvar=23.418 Vminpu=0.9 Vmaxpu=1.1 
New "Load.91144" bus1=Nod_91144.1.2.3 phases=3 conn=LL model=1 kV=0.23 Kw=71.25 kvar=23.418 Vminpu=0.9 Vmaxpu=1.1 
New "Load.91145" bus1=Nod_91145.1.2.3 phases=3 conn=LL model=1 kV=0.23 Kw=47.5 kvar=15.612 Vminpu=0.9 Vmaxpu=1.1 
New "Load.91146" bus1=Nod_91146.1.2.3 phases=3 conn=LL model=1 kV=0.23 Kw=71.25 kvar=23.418 Vminpu=0.9 Vmaxpu=1.1 
New "Load.91147" bus1=Nod_91147.1.2.3 phases=3 conn=LL model=1 kV=0.23 Kw=23.75 kvar=7.806 Vminpu=0.9 Vmaxpu=1.1 
New "Load.91155" bus1=Nod_91155.1.2.3 phases=3 conn=LL model=1 kV=0.23 Kw=47.5 kvar=15.612 Vminpu=0.9 Vmaxpu=1.1 
New "Load.91156" bus1=Nod_91156.1.2.3 phases=3 conn=LL model=1 kV=0.23 Kw=71.25 kvar=23.418 Vminpu=0.9 Vmaxpu=1.1 
New "Load.91157" bus1=Nod_91157.1.2.3 phases=3 conn=LL model=1 kV=0.23 Kw=71.25 kvar=23.418 Vminpu=0.9 Vmaxpu=1.1 
New "Load.91158" bus1=Nod_91158.1.2.3 phases=3 conn=LL model=1 kV=0.23 Kw=71.25 kvar=23.418 Vminpu=0.9 Vmaxpu=1.1 
New "Load.91159" bus1=Nod_91159.1.2.3 phases=3 conn=LL model=1 kV=0.23 Kw=71.25 kvar=23.418 Vminpu=0.9 Vmaxpu=1.1 
New "Load.91160" bus1=Nod_91160.1.2.3 phases=3 conn=LL model=1 kV=0.23 Kw=71.25 kvar=23.418 Vminpu=0.9 Vmaxpu=1.1 
New "Load.91161" bus1=Nod_91161.1.2.3 phases=3 conn=LL model=1 kV=0.23 Kw=71.25 kvar=23.418 Vminpu=0.9 Vmaxpu=1.1 
New "Load.91181" bus1=Nod_91181.1.2.3 phases=3 conn=LL model=1 kV=0.23 Kw=95.0 kvar=31.225 Vminpu=0.9 Vmaxpu=1.1 
New "Load.91228" bus1=Nod_91228.1.2.3 phases=3 conn=LL model=1 kV=0.23 Kw=71.25 kvar=23.418 Vminpu=0.9 Vmaxpu=1.1 
New "Load.91233" bus1=Nod_91233.1.2.3 phases=3 conn=LL model=1 kV=0.23 Kw=237.5 kvar=78.062 Vminpu=0.9 Vmaxpu=1.1 
New "Load.91234" bus1=Nod_91234.1.2.3 phases=3 conn=LL model=1 kV=0.23 Kw=71.25 kvar=23.418 Vminpu=0.9 Vmaxpu=1.1 
New "Load.91241" bus1=Nod_91241.1.2.3 phases=3 conn=LL model=1 kV=0.23 Kw=47.5 kvar=15.612 Vminpu=0.9 Vmaxpu=1.1 
New "Load.91245" bus1=Nod_91245.1.2.3 phases=3 conn=LL model=1 kV=0.23 Kw=47.5 kvar=15.612 Vminpu=0.9 Vmaxpu=1.1 
New "Load.91246" bus1=Nod_91246.1.2.3 phases=3 conn=LL model=1 kV=0.23 Kw=71.25 kvar=23.418 Vminpu=0.9 Vmaxpu=1.1 
New "Load.91247" bus1=Nod_91247.1.2.3 phases=3 conn=LL model=1 kV=0.23 Kw=118.75 kvar=39.031 Vminpu=0.9 Vmaxpu=1.1 
New "Load.91248" bus1=Nod_91248.1.2.3 phases=3 conn=LL model=1 kV=0.23 Kw=190.0 kvar=62.45 Vminpu=0.9 Vmaxpu=1.1 
New "Load.91251" bus1=Nod_91251.1.2.3 phases=3 conn=LL model=1 kV=0.23 Kw=152.0 kvar=49.959 Vminpu=0.9 Vmaxpu=1.1 
New "Load.91252" bus1=Nod_91252.1.2.3 phases=3 conn=LL model=1 kV=0.23 Kw=237.5 kvar=78.062 Vminpu=0.9 Vmaxpu=1.1 
New "Load.91253" bus1=Nod_91253.1.2.3 phases=3 conn=LL model=1 kV=0.23 Kw=71.25 kvar=23.418 Vminpu=0.9 Vmaxpu=1.1 
New "Load.91254" bus1=Nod_91254.1.2.3 phases=3 conn=LL model=1 kV=0.23 Kw=95.0 kvar=31.225 Vminpu=0.9 Vmaxpu=1.1 
New "Load.91255" bus1=Nod_91255.1.2.3 phases=3 conn=LL model=1 kV=0.23 Kw=71.25 kvar=23.418 Vminpu=0.9 Vmaxpu=1.1 
New "Load.91256" bus1=Nod_91256.1.2.3 phases=3 conn=LL model=1 kV=0.23 Kw=47.5 kvar=15.612 Vminpu=0.9 Vmaxpu=1.1 
New "Load.91257" bus1=Nod_91257.1.2.3 phases=3 conn=LL model=1 kV=0.23 Kw=95.0 kvar=31.225 Vminpu=0.9 Vmaxpu=1.1 
New "Load.91258" bus1=Nod_91258.1.2.3 phases=3 conn=LL model=1 kV=0.23 Kw=95.0 kvar=31.225 Vminpu=0.9 Vmaxpu=1.1 
New "Load.91259" bus1=Nod_91259.1.2.3 phases=3 conn=LL model=1 kV=0.23 Kw=95.0 kvar=31.225 Vminpu=0.9 Vmaxpu=1.1 
New "Load.91262" bus1=Nod_91262.1.2.3 phases=3 conn=LL model=1 kV=0.23 Kw=47.5 kvar=15.612 Vminpu=0.9 Vmaxpu=1.1 
New "Load.91263" bus1=Nod_91263.1.2.3 phases=3 conn=LL model=1 kV=0.23 Kw=71.25 kvar=23.418 Vminpu=0.9 Vmaxpu=1.1 
New "Load.91264" bus1=Nod_91264.1.2.3 phases=3 conn=LL model=1 kV=0.23 Kw=71.25 kvar=23.418 Vminpu=0.9 Vmaxpu=1.1 
New "Load.91265" bus1=Nod_91265.1.2.3 phases=3 conn=LL model=1 kV=0.23 Kw=71.25 kvar=23.418 Vminpu=0.9 Vmaxpu=1.1 
